8

C      0.428900      0.382100     -0.505100
C     -0.428900     -0.382100      0.505100
H      0.328700      1.454900     -0.379500
H     -0.328700     -1.454900      0.379500
Br     -0.148900     -0.013300     -2.352000
Br      0.148900      0.013300      2.352000
Cl      2.162500     -0.034500     -0.329300
Cl     -2.162500      0.034500      0.329300
