16

C     -0.712700      0.030600     -0.000000
C      0.712700     -0.030600     -0.000000
N     -1.403400      1.204700     -0.000000
N      1.403400     -1.204700     -0.000000
C     -0.703500      2.318100      0.000000
C      0.703500     -2.318100      0.000000
C      1.421200      1.195500     -0.000000
C     -1.421200     -1.195500     -0.000000
C      0.712800      2.369800      0.000000
C     -0.712800     -2.369800      0.000000
H     -1.273000      3.244600     -0.000000
H      1.273000     -3.244600     -0.000000
H      1.213700      3.330800      0.000000
H     -1.213700     -3.330800      0.000000
H      2.504400      1.163400      0.000000
H     -2.504400     -1.163400      0.000000
