36

H      1.897700      0.000000     -0.000000
H      0.948800      1.643500     -0.000000
H     -0.948900      1.643500     -0.000000
H     -1.897700     -0.000000     -0.000000
H     -0.948800     -1.643500     -0.000000
H      0.948900     -1.643500     -0.000000
C      2.980200     -0.000000     -0.000000
C      1.490100      2.580900     -0.000000
C     -1.490100      2.580900     -0.000000
C     -2.980200     -0.000000     -0.000000
C     -1.490100     -2.580900     -0.000000
C      1.490100     -2.580900     -0.000000
C      3.582800      1.255000      0.000000
C      0.704500      3.730300      0.000000
C     -2.878300      2.475200      0.000000
C     -3.582800     -1.255000      0.000000
C     -0.704500     -3.730300      0.000000
C      2.878300     -2.475200      0.000000
C      3.582800     -1.255000      0.000000
C      2.878300      2.475200      0.000000
C     -0.704500      3.730300      0.000000
C     -3.582800      1.255000      0.000000
C     -2.878300     -2.475200      0.000000
C      0.704500     -3.730300      0.000000
H      4.668800      1.303800      0.000000
H      1.205300      4.695200      0.000000
H     -3.463500      3.391400      0.000000
H     -4.668800     -1.303800      0.000000
H     -1.205300     -4.695200      0.000000
H      3.463500     -3.391400      0.000000
H      4.668800     -1.303800      0.000000
H      3.463500      3.391400      0.000000
H     -1.205300      4.695200      0.000000
H     -4.668800      1.303800      0.000000
H     -3.463500     -3.391400      0.000000
H      1.205300     -4.695200      0.000000
