24

C      1.401700     -0.000000      0.000000
C     -1.401700     -0.000000     -0.000000
H      2.487500     -0.000000      0.000000
H     -2.487500     -0.000000     -0.000000
C      0.721600     -1.221700     -0.000000
C      0.721600      1.221700      0.000000
C     -0.721600     -1.221700      0.000000
C     -0.721600      1.221700     -0.000000
C      1.404900     -2.476500     -0.000000
C     -1.404900     -2.476500     -0.000000
C      1.404900      2.476500     -0.000000
C     -1.404900      2.476500     -0.000000
C      0.712300     -3.654600     -0.000000
C     -0.712300     -3.654600      0.000000
C      0.712300      3.654600      0.000000
C     -0.712300      3.654600     -0.000000
H      2.490000     -2.475400      0.000000
H     -2.490000     -2.475400     -0.000000
H      2.490000      2.475400     -0.000000
H     -2.490000      2.475400     -0.000000
H      1.244300     -4.599300     -0.000000
H     -1.244300     -4.599300      0.000000
H      1.244300      4.599300     -0.000000
H     -1.244300      4.599300      0.000000
