12

C      0.694477     -1.195267      0.000000
C     -0.687846     -1.199031      0.000000
C     -1.382323     -0.003768      0.000000
C     -0.694477      1.195267      0.000000
C      0.687846      1.199031      0.000000
C      1.382323      0.003768      0.000000
H      1.237016     -2.129029      0.000000
H     -1.225283     -2.135813      0.000000
H     -2.462302     -0.006786      0.000000
H     -1.237016      2.129029      0.000000
H      1.225283      2.135813      0.000000
H      2.462302      0.006786      0.000000
