25

Cr      0.000000      0.000000      0.000000
C      1.399100      0.209100      1.647600
C      0.518500      1.316200      1.647600
C     -0.880600      1.107100      1.647600
C     -1.399100     -0.209100      1.647600
C     -0.518500     -1.316200      1.647600
C      0.880600     -1.107100      1.647600
H      2.470600      0.369200      1.647600
H      0.915500      2.324200      1.647600
H     -1.555000      1.955000      1.647600
H     -2.470600     -0.369200      1.647600
H     -0.915500     -2.324200      1.647600
H      1.555000     -1.955000      1.647600
C      1.399100     -0.209100     -1.647600
C      0.518500     -1.316200     -1.647600
C     -0.880600     -1.107100     -1.647600
C     -1.399100      0.209100     -1.647600
C     -0.518500      1.316200     -1.647600
C      0.880600      1.107100     -1.647600
H      2.470600     -0.369200     -1.647600
H      0.915500     -2.324200     -1.647600
H     -1.555000     -1.955000     -1.647600
H     -2.470600      0.369200     -1.647600
H     -0.915500      2.324200     -1.647600
H      1.555000      1.955000     -1.647600
