7

B       0.00000000       0.00000000       0.00000000
O      -0.72018246      -1.24798008      -0.00058307
O       1.44106662      -0.00000000       0.00000000
O      -0.72185019       1.24755476       0.00000000
H      -1.68207838      -1.00999609      -0.00103858
H       1.71617390      -0.95203257      -0.00051692
H      -0.03723134       1.96403560      -0.00139849
