36

C      1.425700     -0.000000     -0.000000
C      0.712800      1.234700     -0.000000
C     -0.712900      1.234700     -0.000000
C     -1.425700     -0.000000     -0.000000
C     -0.712800     -1.234700     -0.000000
C      0.712900     -1.234700     -0.000000
C      2.844800     -0.000000      0.000000
C      1.422400      2.463700      0.000000
C     -1.422400      2.463700      0.000000
C     -2.844800     -0.000000      0.000000
C     -1.422400     -2.463700      0.000000
C      1.422400     -2.463700      0.000000
C      3.529100      1.247000      0.000000
C      0.684700      3.679800      0.000000
C     -2.844500      2.432800      0.000000
C     -3.529100     -1.247000      0.000000
C     -0.684700     -3.679800      0.000000
C      2.844500     -2.432800      0.000000
C      3.529100     -1.247000     -0.000000
C      2.844500      2.432800     -0.000000
C     -0.684700      3.679800     -0.000000
C     -3.529100      1.247000     -0.000000
C     -2.844500     -2.432800     -0.000000
C      0.684700     -3.679800     -0.000000
H      4.614100      1.244600      0.000000
H      1.229200      4.618200      0.000000
H     -3.384900      3.373700      0.000000
H     -4.614100     -1.244600      0.000000
H     -1.229200     -4.618200      0.000000
H      3.384900     -3.373700      0.000000
H      4.614100     -1.244600      0.000000
H      3.384900      3.373700      0.000000
H     -1.229200      4.618200      0.000000
H     -4.614100      1.244600      0.000000
H     -3.384900     -3.373700      0.000000
H      1.229200     -4.618200      0.000000
