108

C      5.056400      0.785100      0.000000
C      5.056400     -0.785100     -0.000000
C      1.848300      4.771500      0.000000
C      3.208100      3.986500     -0.000000
C     -3.208100      3.986500      0.000000
C     -1.848300      4.771500     -0.000000
C     -5.056400     -0.785100      0.000000
C     -5.056400      0.785100     -0.000000
C     -1.848300     -4.771500      0.000000
C     -3.208100     -3.986500     -0.000000
C      3.208100     -3.986500      0.000000
C      1.848300     -4.771500     -0.000000
H      6.068800      1.213300     -0.000000
H      6.068800     -1.213300      0.000000
H      1.983700      5.862400     -0.000000
H      4.085100      4.649100      0.000000
H     -4.085100      4.649100     -0.000000
H     -1.983700      5.862400      0.000000
H     -6.068800     -1.213300     -0.000000
H     -6.068800      1.213300      0.000000
H     -1.983700     -5.862400     -0.000000
H     -4.085100     -4.649100      0.000000
H      4.085100     -4.649100     -0.000000
H      1.983700     -5.862400      0.000000
N      4.381600      1.119400     -1.234200
N      4.381600      1.119400      1.234200
N      4.381600     -1.119400      1.234200
N      4.381600     -1.119400     -1.234200
N      1.221400      4.354300     -1.234200
N      1.221400      4.354300      1.234200
N      3.160200      3.234900      1.234200
N      3.160200      3.234900     -1.234200
N     -3.160200      3.234900     -1.234200
N     -3.160200      3.234900      1.234200
N     -1.221400      4.354300      1.234200
N     -1.221400      4.354300     -1.234200
N     -4.381600     -1.119400     -1.234200
N     -4.381600     -1.119400      1.234200
N     -4.381600      1.119400      1.234200
N     -4.381600      1.119400     -1.234200
N     -1.221400     -4.354300     -1.234200
N     -1.221400     -4.354300      1.234200
N     -3.160200     -3.234900      1.234200
N     -3.160200     -3.234900     -1.234200
N      3.160200     -3.234900     -1.234200
N      3.160200     -3.234900      1.234200
N      1.221400     -4.354300      1.234200
N      1.221400     -4.354300     -1.234200
C      4.056500     -0.000000      1.994300
O      3.623300     -0.000000      3.119200
C      4.056500      0.000000     -1.994300
O      3.623300      0.000000     -3.119200
C      2.028200      3.513000      1.994300
O      1.811700      3.137900      3.119200
C      2.028200      3.513000     -1.994300
O      1.811700      3.137900     -3.119200
C     -2.028200      3.513000      1.994300
O     -1.811700      3.137900      3.119200
C     -2.028200      3.513000     -1.994300
O     -1.811700      3.137900     -3.119200
C     -4.056500     -0.000000      1.994300
O     -3.623300     -0.000000      3.119200
C     -4.056500     -0.000000     -1.994300
O     -3.623300     -0.000000     -3.119200
C     -2.028200     -3.513000      1.994300
O     -1.811700     -3.137900      3.119200
C     -2.028200     -3.513000     -1.994300
O     -1.811700     -3.137900     -3.119200
C      2.028200     -3.513000      1.994300
O      1.811700     -3.137900      3.119200
C      2.028200     -3.513000     -1.994300
O      1.811700     -3.137900     -3.119200
C      4.252000      2.454900     -1.774000
H      4.057900      2.342800     -2.841900
H      5.193600      2.998500     -1.620900
C      4.252000      2.454900      1.774000
H      4.057900      2.342800      2.841900
H      5.193600      2.998500      1.620900
C     -0.000000      4.909700     -1.774000
H     -0.000000      4.685600     -2.841900
H     -0.000000      5.997000     -1.620900
C     -0.000000      4.909700      1.774000
H      0.000000      4.685600      2.841900
H     -0.000000      5.997000      1.620900
C     -4.252000      2.454900     -1.774000
H     -4.057900      2.342800     -2.841900
H     -5.193600      2.998500     -1.620900
C     -4.252000      2.454900      1.774000
H     -4.057900      2.342800      2.841900
H     -5.193600      2.998500      1.620900
C     -4.252000     -2.454900     -1.774000
H     -4.057900     -2.342800     -2.841900
H     -5.193600     -2.998500     -1.620900
C     -4.252000     -2.454900      1.774000
H     -4.057900     -2.342800      2.841900
H     -5.193600     -2.998500      1.620900
C      0.000000     -4.909700     -1.774000
H      0.000000     -4.685600     -2.841900
H      0.000000     -5.997000     -1.620900
C      0.000000     -4.909700      1.774000
H      0.000000     -4.685600      2.841900
H      0.000000     -5.997000      1.620900
C      4.252000     -2.454900     -1.774000
H      4.057900     -2.342800     -2.841900
H      5.193600     -2.998500     -1.620900
C      4.252000     -2.454900      1.774000
H      4.057900     -2.342800      2.841900
H      5.193600     -2.998500      1.620900
