8

H       0.00000000       2.11210842       0.00000000
C       0.00000000      -1.03105719       0.00000000
C       1.03105719       0.00000000       0.00000000
C       0.00000000       1.03105719       0.00000000
C      -1.03105719       0.00000000       0.00000000
H      -2.11210842       0.00000000       0.00000000
H       0.00000000      -2.11210842       0.00000000
H       2.11210842       0.00000000       0.00000000
