18

Re       0.00000000       0.00000000       1.17109017
Re       0.00000001       0.00000000      -1.17109017
H       2.05804919       0.00000000       2.56727720
H       2.03089513       0.00000000      -2.62435012
H       0.04172733       2.01524082       2.63329152
C       0.05862833      -1.01509370       3.11356268
C       1.07437258       0.00000000       3.08090431
C       0.05862833       1.01509370       3.11356268
C      -0.95478572      -0.00000000       3.14606972
H      -1.97085158      -0.00000000       2.70035256
H       0.04172733      -2.01524082       2.63329152
H       0.01233137       2.01851497      -2.64236021
C       0.01644736      -1.01492061      -3.11494624
C       1.03157933      -0.00000000      -3.10596313
C       0.01644736       1.01492061      -3.11494624
C      -0.99814346       0.00000000      -3.12392257
H      -2.00617224       0.00000000      -2.66088781
H       0.01233137      -2.01851497      -2.64236021
