8

C     -0.000000      0.000000     -0.765400
C     -0.000000     -0.000000      0.765300
H      1.018500      0.000000     -1.163600
H     -0.509200      0.882000     -1.163600
H     -0.509200     -0.882000     -1.163600
H      1.018500     -0.000000      1.163600
H     -0.509200     -0.882000      1.163600
H     -0.509200      0.882000      1.163600
