10

O      -1.18610325       0.00000000       0.00000000
H      -1.98958660       0.00120390       0.55133069
C      -0.05695881       0.00188272       0.85971665
H      -0.07630096      -0.88808167       1.51858468
H      -0.07629954       0.89472281       1.51468251
C       1.18610325      -0.00000000      -0.00000000
H       2.06253245       0.00146173       0.66748372
H       1.25427289       0.88914588      -0.64366925
H       1.25427288      -0.89195650      -0.63976878
