70

C      3.480200      0.734500      0.000000
C      0.376900      3.536800      0.000000
C     -3.247300      1.451400     -0.000000
C     -2.383800     -2.639800     -0.000000
C      1.774000     -3.082900     -0.000000
C      3.480200     -0.734500      0.000000
C      1.774000      3.082900      0.000000
C     -2.383800      2.639800      0.000000
C     -3.247300     -1.451400     -0.000000
C      0.376900     -3.536800     -0.000000
C      3.161800      1.412200      1.204400
C     -0.366000      3.443400      1.204400
C     -3.388000      0.716000      1.204400
C     -1.727900     -3.000900      1.204400
C      2.320100     -2.570600      1.204400
C      3.161800      1.412200     -1.204400
C     -0.366000      3.443400     -1.204400
C     -3.388000      0.716000     -1.204400
C     -1.727900     -3.000900     -1.204400
C      2.320100     -2.570600     -1.204400
C      3.161800     -1.412200      1.204400
C      2.320100      2.570600      1.204400
C     -1.727900      3.000900      1.204400
C     -3.388000     -0.716000      1.204400
C     -0.366000     -3.443400      1.204400
C      3.161800     -1.412200     -1.204400
C      2.320100      2.570600     -1.204400
C     -1.727900      3.000900     -1.204400
C     -3.388000     -0.716000     -1.204400
C     -0.366000     -3.443400     -1.204400
C      2.930900      0.692800      2.438700
C      0.246800      3.001600      2.438700
C     -2.778400      1.162200      2.438700
C     -1.963900     -2.283300      2.438700
C      1.564600     -2.573400      2.438700
C      2.930900      0.692800     -2.438700
C      0.246800      3.001600     -2.438700
C     -2.778400      1.162200     -2.438700
C     -1.963900     -2.283300     -2.438700
C      1.564600     -2.573400     -2.438700
C      2.930900     -0.692800      2.438700
C      1.564600      2.573400      2.438700
C     -1.963900      2.283300      2.438700
C     -2.778400     -1.162200      2.438700
C      0.246800     -3.001600      2.438700
C      2.930900     -0.692800     -2.438700
C      1.564600      2.573400     -2.438700
C     -1.963900      2.283300     -2.438700
C     -2.778400     -1.162200     -2.438700
C      0.246800     -3.001600     -2.438700
C     -0.744900      2.292700     -3.217000
C     -2.410700      0.000000     -3.217000
C     -0.744900     -2.292700     -3.217000
C      1.950300     -1.416900     -3.217000
C      1.950300      1.416900     -3.217000
C      1.950300      1.416900      3.217000
C      1.950300     -1.416900      3.217000
C     -0.744900     -2.292700      3.217000
C     -2.410700     -0.000000      3.217000
C     -0.744900      2.292700      3.217000
C     -0.381000      1.172700     -3.963000
C     -1.233100      0.000000     -3.963000
C     -0.381000     -1.172700     -3.963000
C      0.997600     -0.724800     -3.963000
C      0.997600      0.724800     -3.963000
C      0.997600      0.724800      3.963000
C      0.997600     -0.724800      3.963000
C     -0.381000     -1.172700      3.963000
C     -1.233100     -0.000000      3.963000
C     -0.381000      1.172700      3.963000
