72

H      1.845900     -0.000000     -0.000000
H      0.923000      1.598600     -0.000000
H     -0.922900      1.598600     -0.000000
H     -1.845900      0.000000     -0.000000
H     -0.922900     -1.598600     -0.000000
H      0.923000     -1.598600     -0.000000
C      2.922500     -0.000000     -0.000000
C      1.461300      2.531000     -0.000000
C     -1.461200      2.531000     -0.000000
C     -2.922500      0.000000     -0.000000
C     -1.461300     -2.531000     -0.000000
C      1.461200     -2.531000     -0.000000
C      3.581800      1.225500     -0.000000
C      0.729600      3.714700     -0.000000
C     -2.852200      2.489200     -0.000000
C     -3.581800     -1.225500     -0.000000
C     -0.729600     -3.714700     -0.000000
C      2.852200     -2.489200     -0.000000
C      3.581800     -1.225500     -0.000000
C      2.852200      2.489200     -0.000000
C     -0.729600      3.714700     -0.000000
C     -3.581800      1.225500     -0.000000
C     -2.852200     -2.489200     -0.000000
C      0.729600     -3.714700     -0.000000
C      5.008800      1.228400     -0.000000
C      1.440600      4.952000     -0.000000
C     -3.568300      3.723600     -0.000000
C     -5.008800     -1.228400     -0.000000
C     -1.440600     -4.952000     -0.000000
C      3.568300     -3.723600     -0.000000
C      5.008800     -1.228400      0.000000
C      3.568300      3.723600      0.000000
C     -1.440600      4.952000      0.000000
C     -5.008800      1.228400      0.000000
C     -3.568300     -3.723600      0.000000
C      1.440600     -4.952000      0.000000
C      5.689400      2.500200     -0.000000
C      0.679500      6.177300     -0.000000
C     -5.009900      3.677100     -0.000000
C     -5.689400     -2.500200     -0.000000
C     -0.679500     -6.177300     -0.000000
C      5.009900     -3.677100     -0.000000
C      5.689400     -2.500200      0.000000
C      5.009900      3.677100      0.000000
C     -0.679500      6.177300      0.000000
C     -5.689400      2.500200      0.000000
C     -5.009900     -3.677100      0.000000
C      0.679500     -6.177300      0.000000
H      6.774500      2.501100     -0.000000
H      1.221200      7.117500     -0.000000
H     -5.553300      4.616400     -0.000000
H     -6.774500     -2.501100     -0.000000
H     -1.221200     -7.117500     -0.000000
H      5.553300     -4.616400     -0.000000
H      6.774500     -2.501100      0.000000
H      5.553300      4.616400      0.000000
H     -1.221200      7.117500      0.000000
H     -6.774500      2.501100      0.000000
H     -5.553300     -4.616400      0.000000
H      1.221200     -7.117500      0.000000
C      5.686000     -0.000000     -0.000000
C      2.843000      4.924200     -0.000000
C     -2.843000      4.924200     -0.000000
C     -5.686000      0.000000     -0.000000
C     -2.843000     -4.924200     -0.000000
C      2.843000     -4.924200     -0.000000
H      6.771900     -0.000000     -0.000000
H      3.386000      5.864600     -0.000000
H     -3.385900      5.864600     -0.000000
H     -6.771900      0.000000     -0.000000
H     -3.386000     -5.864600     -0.000000
H      3.385900     -5.864600     -0.000000
