9

Ni     -0.000000     -0.000000     -0.000000
C      1.061200      1.061200      1.061200
C     -1.061200     -1.061200      1.061200
C     -1.061200      1.061200     -1.061200
C      1.061200     -1.061200     -1.061200
O      1.719900      1.719900      1.719900
O     -1.719900     -1.719900      1.719900
O     -1.719900      1.719900     -1.719900
O      1.719900     -1.719900     -1.719900
