20

C      1.327000     -0.000000      0.785800
C      0.410100     -1.262100      0.785800
C     -1.073600     -0.780000      0.785800
C     -1.073600      0.780000      0.785800
C      0.410100      1.262100      0.785800
C      1.327000      0.000000     -0.785800
C      0.410100     -1.262100     -0.785800
C     -1.073600     -0.780000     -0.785800
C     -1.073600      0.780000     -0.785800
C      0.410100      1.262100     -0.785800
H      2.237400      0.000000      1.384800
H      0.691400     -2.127900      1.384800
H     -1.810100     -1.315100      1.384800
H     -1.810100      1.315100      1.384800
H      0.691400      2.127900      1.384800
H      2.237400      0.000000     -1.384800
H      0.691400     -2.127900     -1.384800
H     -1.810100     -1.315100     -1.384800
H     -1.810100      1.315100     -1.384800
H      0.691400      2.127900     -1.384800
