24

C      0.728200      0.000000     -0.383900
C     -0.728200     -0.000000     -0.383900
C      1.421200      0.000000      0.860700
C     -1.421200     -0.000000      0.860700
C      0.678200      0.000000      2.087000
C     -0.678200     -0.000000      2.087000
H      1.228900      0.000000      3.021900
H     -1.228900     -0.000000      3.021900
C      1.498100      0.000000     -1.568700
C     -1.498100     -0.000000     -1.568700
C      2.833900      0.000000      0.872600
C     -2.833900     -0.000000      0.872600
C      2.877800      0.000000     -1.531700
C     -2.877800     -0.000000     -1.531700
C      3.555700     -0.000000     -0.301000
C     -3.555700      0.000000     -0.301000
H      1.005400      0.000000     -2.532300
H     -1.005400     -0.000000     -2.532300
H      3.345100      0.000000      1.829700
H     -3.345100     -0.000000      1.829700
H      3.440500      0.000000     -2.458500
H     -3.440500     -0.000000     -2.458500
H      4.639600     -0.000000     -0.277300
H     -4.639600      0.000000     -0.277300
