59

Fe       0.00000000       0.00000000       0.00000000
N       1.91425000      -0.00000000      -0.00000279
N      -0.00000000       1.91425000      -0.00000249
N      -1.91425000       0.00000000       0.00000279
N       0.00000000      -1.91425000       0.00000249
N       2.38589000       2.38589000      -0.00000658
N      -2.38589000       2.38589000       0.00000038
N      -2.38589000      -2.38589000       0.00000658
N       2.38589000      -2.38589000      -0.00000038
C       2.73926000       1.11359000      -0.00000544
C      -1.11359000       2.73926000      -0.00000194
C      -2.73926000      -1.11359000       0.00000544
C       1.11359000      -2.73926000       0.00000194
C       2.73926000      -1.11359000      -0.00000255
C       1.11359000       2.73926000      -0.00000518
C      -2.73926000       1.11359000       0.00000255
C      -1.11359000      -2.73926000       0.00000518
C       4.13364000       0.70161000      -0.00000694
C      -0.70161000       4.13364000      -0.00000435
C      -4.13364000      -0.70161000       0.00000694
C       0.70161000      -4.13364000       0.00000435
C       4.13364000      -0.70161000      -0.00000511
C       0.70161000       4.13364000      -0.00000640
C      -4.13364000       0.70161000       0.00000511
C      -0.70161000      -4.13364000       0.00000640
C       5.32712000       1.42894000      -0.00000962
C      -1.42894000       5.32712000      -0.00000484
C      -5.32712000      -1.42894000       0.00000962
C       1.42894000      -5.32712000       0.00000484
C       5.32712000      -1.42894000      -0.00000591
C       1.42894000       5.32712000      -0.00000901
C      -5.32712000       1.42894000       0.00000591
C      -1.42894000      -5.32712000       0.00000901
C       6.52276000       0.70581000      -0.00001043
C      -0.70581000       6.52276000      -0.00000745
C      -6.52276000      -0.70581000       0.00001043
C       0.70581000      -6.52276000       0.00000745
C       6.52276000      -0.70581000      -0.00000859
C       0.70581000       6.52276000      -0.00000951
C      -6.52276000       0.70581000       0.00000859
C      -0.70581000      -6.52276000       0.00000951
H       5.31666000       2.51936000      -0.00001103
H      -2.51936000       5.31666000      -0.00000324
H      -5.31666000      -2.51936000       0.00001103
H       2.51936000      -5.31666000       0.00000324
H       5.31666000      -2.51936000      -0.00000448
H       2.51936000       5.31666000      -0.00001058
H      -5.31666000       2.51936000       0.00000448
H      -2.51936000      -5.31666000       0.00001058
H       7.47641000       1.23855000      -0.00001251
H       7.47641000      -1.23855000      -0.00000929
H      -7.47641000       1.23855000       0.00000929
H      -7.47641000      -1.23855000       0.00001251
H      -1.23855000       7.47641000      -0.00000791
H       1.23855000       7.47641000      -0.00001153
H       1.23855000      -7.47641000       0.00000791
H      -1.23855000      -7.47641000       0.00001153
