39

Fe       0.00000000       0.00000000       0.00000000
N       0.00000000      -1.96509400      -0.00000252
N       1.96509400      -0.00000000       0.00000186
N      -0.00000000       1.96509400       0.00000252
N      -1.96509400       0.00000000      -0.00000186
C       1.09246000      -2.81085900      -0.00000257
C      -1.09246000      -2.81085900      -0.00000464
C       1.09246000       2.81085900       0.00000464
C      -1.09246000       2.81085900       0.00000257
C       2.81085900      -1.09246000       0.00000126
C       2.81085900       1.09246000       0.00000407
C      -2.81085900      -1.09246000      -0.00000407
C      -2.81085900       1.09246000      -0.00000126
C       0.68002100      -4.18903200      -0.00000474
C      -0.68002100      -4.18903200      -0.00000602
C       0.68002100       4.18903200       0.00000602
C      -0.68002100       4.18903200       0.00000474
C       4.18903200      -0.68002100       0.00000310
C       4.18903200       0.68002100       0.00000484
C      -4.18903200      -0.68002100      -0.00000484
C      -4.18903200       0.68002100      -0.00000310
C       2.41255200      -2.41255200      -0.00000081
C      -2.41255200      -2.41255200      -0.00000538
C      -2.41255200       2.41255200       0.00000081
C       2.41255200       2.41255200       0.00000538
H       1.36222500      -5.03205000      -0.00000517
H      -1.36222500      -5.03205000      -0.00000775
H       1.36222500       5.03205000       0.00000775
H      -1.36222500       5.03205000       0.00000517
H       5.03205000      -1.36222500       0.00000302
H       5.03205000       1.36222500       0.00000652
H      -5.03205000      -1.36222500      -0.00000652
H      -5.03205000       1.36222500      -0.00000302
H       3.18149600      -3.18149600      -0.00000107
H      -3.18149600      -3.18149600      -0.00000710
H      -3.18149600       3.18149600       0.00000107
H       3.18149600       3.18149600       0.00000710
