11

N       0.00000000       0.00000000       1.40045628
C       1.21283071      -0.00000019       0.70022799
C      -1.21283096       0.00000020       0.70022826
C       1.21283055      -0.00000020      -0.70022837
C      -1.21283067       0.00000019      -0.70022816
C       0.00000034       0.00000000      -1.40045602
H       2.13947794      -0.00000034       1.23522792
H      -2.13947807       0.00000166       1.23522838
H      -2.13947771       0.00000034      -1.23522840
H       2.13947769       0.00000097      -1.23522846
H       0.00000059      -0.00000000      -2.47045602
