7

S      0.000000      0.000000     -0.259000
Cl     -0.000000     -0.000000      1.657900
F      1.617000     -0.000000     -0.279500
F     -0.000000     -1.617000     -0.279500
F     -1.617000      0.000000     -0.279500
F      0.000000      1.617000     -0.279500
F     -0.000000     -0.000000     -1.865600
