33

C      1.212800      0.716000      0.663100
C     -1.226500      0.692300      0.663100
C      0.013700     -1.408300      0.663100
C      1.212800     -0.716000      0.663100
C      0.013700      1.408300      0.663100
C     -1.226500     -0.692300      0.663100
C      2.359300      1.212200      0.038500
C     -2.229400      1.437100      0.038500
C     -0.129900     -2.649300      0.038500
C      2.359300     -1.212200      0.038500
C     -0.129900      2.649300      0.038500
C     -2.229400     -1.437100      0.038500
C      2.272600      2.507500     -0.476700
C     -3.307800      0.714400     -0.476700
C      1.035300     -3.221800     -0.476700
C      2.272600     -2.507500     -0.476700
C      1.035300      3.221800     -0.476700
C     -3.307800     -0.714400     -0.476700
C      3.295600     -0.000000     -0.215900
C     -1.647800      2.854100     -0.215900
C     -1.647800     -2.854100     -0.215900
H      4.158300     -0.000000      0.460900
H     -2.079200      3.601200      0.460900
H     -2.079200     -3.601200      0.460900
H      3.687900     -0.000000     -1.235800
H     -1.843900      3.193800     -1.235800
H     -1.843900     -3.193800     -1.235800
H      3.109300      2.953200     -1.005200
H     -4.112200      1.216100     -1.005200
H      1.002900     -4.169300     -1.005200
H      3.109300     -2.953200     -1.005200
H      1.002900      4.169300     -1.005200
H     -4.112200     -1.216100     -1.005200
