48

C      1.411800      0.000000     -1.331400
C      0.705900      1.222700     -1.331400
C     -0.705900      1.222700     -1.331400
C     -1.411800     -0.000000     -1.331400
C     -0.705900     -1.222700     -1.331400
C      0.705900     -1.222700     -1.331400
C      2.839400      0.000000     -0.802700
C      1.419700      2.459000     -0.802700
C     -1.419700      2.459000     -0.802700
C     -2.839400     -0.000000     -0.802700
C     -1.419700     -2.459000     -0.802700
C      1.419700     -2.459000     -0.802700
C      1.411800     -0.000000      1.331400
C      0.705900      1.222700      1.331400
C     -0.705900      1.222700      1.331400
C     -1.411800     -0.000000      1.331400
C     -0.705900     -1.222700      1.331400
C      0.705900     -1.222700      1.331400
C      2.839400     -0.000000      0.802700
C      1.419700      2.459000      0.802700
C     -1.419700      2.459000      0.802700
C     -2.839400      0.000000      0.802700
C     -1.419700     -2.459000      0.802700
C      1.419700     -2.459000      0.802700
H      3.394100     -0.866400     -1.157000
H      3.394100      0.866400     -1.157000
H      2.447300      2.506200     -1.157000
H      0.946700      3.372500     -1.157000
H     -0.946700      3.372500     -1.157000
H     -2.447300      2.506200     -1.157000
H     -3.394100      0.866400     -1.157000
H     -3.394100     -0.866400     -1.157000
H     -2.447300     -2.506200     -1.157000
H     -0.946700     -3.372500     -1.157000
H      0.946700     -3.372500     -1.157000
H      2.447300     -2.506200     -1.157000
H      3.394100     -0.866400      1.157000
H      3.394100      0.866400      1.157000
H      2.447300      2.506200      1.157000
H      0.946700      3.372500      1.157000
H     -0.946700      3.372500      1.157000
H     -2.447300      2.506200      1.157000
H     -3.394100      0.866400      1.157000
H     -3.394100     -0.866400      1.157000
H     -2.447300     -2.506200      1.157000
H     -0.946700     -3.372500      1.157000
H      0.946700     -3.372500      1.157000
H      2.447300     -2.506200      1.157000
