24

C      -0.00000003       1.30767105       0.92466305
C       1.30767105       0.00000002       0.92466307
C       1.30767105       0.00000002      -0.92466305
C       0.00000000       1.30767105      -0.92466308
C      -1.30767105      -0.00000002       0.92466305
C      -0.00000000      -1.30767105       0.92466308
C       0.00000003      -1.30767105      -0.92466305
C      -1.30767105      -0.00000002      -0.92466307
F      -0.00000003       2.43443633       1.72140641
F       2.43443631       0.00000002       1.72140647
H       2.18948736       0.00000001      -1.54820133
H      -0.00000001       2.18948733      -1.54820135
F      -2.43443634      -0.00000000       1.72140641
F       0.00000002      -2.43443631       1.72140647
H       0.00000003      -2.18948736      -1.54820133
H      -2.18948733      -0.00000002      -1.54820138