16

C       0.00001306       0.00380968       2.20003372
H       0.89049515      -0.50957372       2.60148436
H      -0.89396779      -0.50345661       2.60148437
H       0.00357618       1.04323309       2.57966359
C      -0.00003113      -0.00908088       0.70631657
C      -1.19927939       0.00105825      -0.19367083
C      -1.20247556       0.00869307      -1.39765101
C       0.00002072       0.00604460      -2.09835623
C       1.20250690       0.00044883      -1.39765102
C       1.19925846      -0.00716389      -0.19367082
H      -2.14774506       0.00133024       0.54268529
H      -2.15297151       0.01148018      -1.93995991
H       0.00001306       0.00380968      -3.29231619
H       2.15299963      -0.00328058      -1.93995991
H       2.14770369      -0.01339445       0.54268530