35

C     -0.000000     -0.000000      0.734700
H     -0.000000     -0.000000      1.830600
C      0.691600      1.301200      0.319300
C      0.304300      2.039300     -0.802100
C      0.984000      3.204300     -1.158400
C      2.058000      3.653300     -0.395600
C      1.772000      1.765300      1.079500
C      2.449700      2.928400      0.729100
H     -0.539800      1.709800     -1.396400
H      0.666500      3.763500     -2.031700
H      2.582200      4.561800     -0.670200
H      2.086700      1.204000      1.953900
H      3.281100      3.271300      1.335200
C     -1.472600     -0.051700      0.319300
C     -1.918200     -0.756100     -0.802100
C     -3.267000     -0.750000     -1.158400
C     -4.192900     -0.044400     -0.395600
C     -2.414800      0.652000      1.079500
C     -3.760900      0.657300      0.729100
H     -1.210900     -1.322400     -1.396400
H     -3.592500     -1.304600     -2.031700
H     -5.241800     -0.044700     -0.670200
H     -2.086100      1.205100      1.953900
H     -4.473600      1.205900      1.335200
C      0.781100     -1.249500      0.319300
C      1.613900     -1.283200     -0.802100
C      2.283000     -2.454400     -1.158400
C      2.134900     -3.609000     -0.395600
C      0.642800     -2.417300      1.079500
C      1.311200     -3.585700      0.729100
H      1.750700     -0.387400     -1.396400
H      2.926100     -2.458900     -2.031700
H      2.659500     -4.517200     -0.670200
H     -0.000600     -2.409200      1.953900
H      1.192500     -4.477200      1.335200
