7

Xe     -0.000000      0.000000     0.202700
F      1.442100      0.000000     -1.075400
F     -0.721100      1.248900     -1.075400
F     -0.721100     -1.248900     -1.075400
F     -1.750000     -0.000000      0.606400
F      0.875000     -1.515600      0.606400
F      0.875000      1.515600      0.606400
